trattoria_core-0.4.2.dist-info/METADATA,sha256=qqY8Qk3G5d2h-jhE1WKPtb-taU6GDYDb4fJYszYmEk8,448
trattoria_core-0.4.2.dist-info/WHEEL,sha256=MT3DwHY5NKmzjNPpPbf0eXsp-b7ApWmdqZ12k72Nobo,105
trattoria_core.cpython-36m-darwin.so,sha256=_-q6ZjclHTHwCCpcNI-xPbg_GkYsBQOKq0X79zFVicg,535496
trattoria_core-0.4.2.dist-info/RECORD,,
